/*--------------------------------*- C++ -*----------------------------------*\
  =========                 |
  \\      /  F ield         | OpenFOAM: The Open Source CFD Toolbox
   \\    /   O peration     | Website:  https://openfoam.org
    \\  /    A nd           | Version:  13
     \\/     M anipulation  |
\*---------------------------------------------------------------------------*/
FoamFile
{
    format      ascii;
    class       volScalarField;
    location    "0";
    object      epsilon;
}
// * * * * * * * * * * * * * * * * * * * * * * * * * * * * * * * * * * * * * //

dimensions      [energy/mass/time];

internalField   uniform 3.60203e-06;

boundaryField
{
    #includeEtc "caseDicts/setConstraintTypes"

    inlet
    {
        type            turbulentMixingLengthDissipationRateInlet;
        mixingLength    0.1;
        value           $internalField;
    }
    outlet
    {
        type            inletOutlet;
        value           $internalField;
        inletValue      $internalField;
    }
    canal_wall
    {
        type            epsilonWallFunction;
        value           $internalField;
    }
    plane_symmetry_z
    {
        type            symmetryPlane;
    }
    plane_symmetry_y
    {
        type            symmetryPlane;
    }
}


// ************************************************************************* //
