/*--------------------------------*- C++ -*----------------------------------*\
  =========                 |
  \\      /  F ield         | OpenFOAM: The Open Source CFD Toolbox
   \\    /   O peration     | Website:  https://openfoam.org
    \\  /    A nd           | Version:  13
     \\/     M anipulation  |
\*---------------------------------------------------------------------------*/
FoamFile
{
    format      ascii;
    class       volScalarField;
    location    "0";
    object      k;
}
// * * * * * * * * * * * * * * * * * * * * * * * * * * * * * * * * * * * * * //

dimensions      [energy/mass];

internalField   uniform 0.00016875;

boundaryField
{
    #includeEtc "caseDicts/setConstraintTypes"

    inlet
    {
        type            turbulentIntensityKineticEnergyInlet;
        intensity       0.05;
        value           $internalField;
    }
    outlet
    {
        type            inletOutlet;
        value           $internalField;
        inletValue      $internalField;
    }
    canal_wall
    {
        type            kqRWallFunction;
        value           $internalField;
    }
    step
    {
        type            inletOutlet;
        value           $internalField;
        inletValue      $internalField;
    }
    plane_symmetry_z
    {
        type            symmetryPlane;
    }
    plane_symmetry_y
    {
        type            symmetryPlane;
    }
}


// ************************************************************************* //
