/*--------------------------------*- C++ -*----------------------------------*\
  =========                 |
  \\      /  F ield         | OpenFOAM: The Open Source CFD Toolbox
   \\    /   O peration     | Website:  https://openfoam.org
    \\  /    A nd           | Version:  13
     \\/     M anipulation  |
\*---------------------------------------------------------------------------*/
FoamFile
{
    format      ascii;
    class       dictionary;
    location    "system";
    object      fvSchemes;
}
// * * * * * * * * * * * * * * * * * * * * * * * * * * * * * * * * * * * * * //

ddtSchemes
{
    default Euler;
}

gradSchemes
{
    // default         Gauss linear;
    default         cellLimited Gauss linear 1;
    grad(p)         leastSquares;
    grad(p_rgh)     leastSquares;
    limitedGrad     cellLimited Gauss linear 1;
}

divSchemes
{
    default             none;

    div(phi,U)          Gauss linearUpwind grad(U);
    div(phi,Yi_h)       Gauss limitedLinear01 1.0;
    div(phi,k)          Gauss linearUpwind limitedGrad;
    div(phi,omega)      Gauss linearUpwind limitedGrad;
    div(phi,K)          Gauss limitedLinear 1;
    div(phi,e)          Gauss limitedLinear 1;
    div(phi,h)          Gauss limitedLinear 1;
    div(phi,(p|rho))    Gauss linear;

    div(((rho*nuEff)*dev2(T(grad(U))))) Gauss linear;
}

laplacianSchemes
{
    default        Gauss linear limited corrected 0.33;
}

interpolationSchemes
{
    default         linear;
}

snGradSchemes
{
    default         corrected;
}

// * * * * * * * * * * * * * * * * * * * * * * * * * * * * * * * * * * * * * //

fluxRequired
{
    default         no;
    p_rgh;
}

wallDist
{
    method          meshWave;
}

// ************************************************************************* //
