/*--------------------------------*- C++ -*----------------------------------*\
  =========                 |
  \\      /  F ield         | OpenFOAM: The Open Source CFD Toolbox
   \\    /   O peration     | Website:  https://openfoam.org
    \\  /    A nd           | Version:  13
     \\/     M anipulation  |
\*---------------------------------------------------------------------------*/
FoamFile
{
    format      ascii;
    class       dictionary;
    location    "system";
    object      fvSolution;
}
// * * * * * * * * * * * * * * * * * * * * * * * * * * * * * * * * * * * * * //

solvers
{
    "rho.*"
    {
        solver          diagonal;
    }

    p_rgh
    {
        solver           GAMG;
        smoother         GaussSeidel;
        tolerance        1e-7;
        relTol           0.01;
    }

    p_rghFinal
    {
        $p_rgh;
        tolerance        1e-7;
        relTol           0;
    }

    "(U|h|k|omega|Yi)"
    {
        solver           PBiCGStab;
        preconditioner   DILU;
        tolerance        1e-7;
        relTol           0.1;
    }

    "(U|h|k|omega|Yi)Final"
    {
        $U;
        tolerance        1e-7;
        relTol           0;
    }

    G
    {
        solver          PCG;
        preconditioner  DIC;
        tolerance       1e-5;
        relTol          0.1;
    }

    GFinal
    {
        $G;
        relTol          0;
    }
}

PIMPLE
{
    momentumPredictor   no;
    nOuterCorrectors  2; // Essencial para acoplamento de densidade/pressão
    nCorrectors       3;
    nNonOrthogonalCorrectors 3; // ou 3. Isso corrige o erro da malha na quina.
    consistent        no;
}


relaxationFactors
{
    equations
    {
        ".*"            1;
        p_rgh           0.7;
        p               0.7;
        rho             1.0;
    }
}

// ************************************************************************* //
